[TITLE]
;;Project Title/Notes

[OPTIONS]
;;Option             Value
FLOW_UNITS           CMS
INFILTRATION         HORTON
FLOW_ROUTING         DYNWAVE
LINK_OFFSETS         ELEVATION
MIN_SLOPE            0
ALLOW_PONDING        NO
SKIP_STEADY_STATE    YES

IGNORE_RDII          YES
IGNORE_SNOWMELT      YES
IGNORE_GROUNDWATER   YES
IGNORE_QUALITY       YES
START_DATE           12/21/2020
START_TIME           00:00:00
REPORT_START_DATE    12/21/2020
REPORT_START_TIME    00:00:00
END_DATE             02/04/2021
END_TIME             00:00:00
SWEEP_START          01/01
SWEEP_END            12/31
DRY_DAYS             1
REPORT_STEP          00:01:00
WET_STEP             00:01:00
DRY_STEP             00:01:00
ROUTING_STEP         0:00:01 
RULE_STEP            00:00:00

INERTIAL_DAMPING     PARTIAL
NORMAL_FLOW_LIMITED  BOTH
FORCE_MAIN_EQUATION  H-W
VARIABLE_STEP        0.75
LENGTHENING_STEP     0
MIN_SURFAREA         1.167
MAX_TRIALS           8
HEAD_TOLERANCE       0.0015
SYS_FLOW_TOL         5
LAT_FLOW_TOL         5
MINIMUM_STEP         0.5
THREADS              2

[EVAPORATION]
;;Data Source    Parameters
;;-------------- ----------------
MONTHLY          0.28   0.53   1.02   1.74   2.54   2.75   2.79   2.42   1.49   0.8    0.35   0.21  
DRY_ONLY         YES

[RAINGAGES]
;;Name           Format    Interval SCF      Source    
;;-------------- --------- ------ ------ ----------
Kostra           VOLUME    0:05     1        TIMESERIES precipIntervall5Betriebshof

[SUBCATCHMENTS]
;;Name           Rain Gage        Outlet           Area     %Imperv  Width    %Slope   CurbLen  SnowPack        
;;-------------- ---------------- ---------------- -------- -------- -------- -------- -------- ----------------
EZG_1            Kostra           R0024906         0.00032  0        1.7984   0.5      0                        
EZG_2            Kostra           R0026071         0.00964  0        9.81588  0.5      0                        
EZG_3            Kostra           R0024906         0.02724  0        16.50374 0.5      0                        
EZG_4            Kostra           R0023452         0.00024  0        1.54281  0.5      0                        
EZG_5            Kostra           R0024906         0.16418  0        40.51893 0.5      0                        
EZG_6            Kostra           R0023452         0.09701  0        31.1461  0.5      0                        
EZG_7            Kostra           R0023447         0.00576  0        7.58934  0.5      0                        
EZG_8            Kostra           R0023450         0.03112  0        17.64014 0.5      0                        
EZG_9            Kostra           R0023449         0.00195  0        4.41897  0.5      0                        
EZG_10           Kostra           R0023410         0.00364  0        6.03076  0.5      0                        
EZG_11           Kostra           R0023407         0.00346  0        5.88514  0.5      0                        
EZG_12           Kostra           R0026072         0.0008   0        2.82822  0.5      0                        
EZG_13           Kostra           R0026072         0.00278  0        5.27556  0.5      0                        
EZG_14           Kostra           R0023453         0.02021  0        14.21792 0.5      0                        
EZG_15           Kostra           R0023453         0.00238  0        4.87502  0.5      0                        
EZG_16           Kostra           R0023450         0.01811  0        13.45588 0.5      0                        
EZG_17           Kostra           R0023450         0.00023  0        1.50086  0.5      0                        
EZG_18           Kostra           R0023452         0.07972  0        28.23428 0.5      0                        
EZG_19           Kostra           R0023452         0.00796  0        8.92129  0.5      0                        
EZG_20           Kostra           R0023449         0.01823  0        13.50026 0.5      0                        
EZG_21           Kostra           R0023405         0.00385  0        6.20615  0.5      0                        
EZG_22           Kostra           R0023446         0.0172   0        13.11567 0.5      0                        
EZG_23           Kostra           R0023408         0.01806  0        13.44013 0.5      0                        
EZG_24           Kostra           R0023446         0.00062  0        2.48059  0.5      0                        
EZG_25           Kostra           R0023407         0.00365  0        6.04513  0.5      0                        
EZG_26           Kostra           R0038849         0.02394  0        15.47396 0.5      0                        
EZG_27           Kostra           R0023405         0.01765  0        13.28641 0.5      0                        
EZG_28           Kostra           R0023408         0.02997  0        17.31266 0.5      0                        
EZG_29           Kostra           R0023446         0.00034  0        1.84577  0.5      0                        
EZG_30           Kostra           R0023446         0.02479  0        15.74385 0.5      0                        
EZG_31           Kostra           R0026071         0.00255  95       5.04765  0.5      0                        
EZG_32           Kostra           R0026072         0.0002   95       1.43121  0.5      0                        
EZG_33           Kostra           R0023449         0.00638  95       7.98827  0.5      0                        
EZG_34           Kostra           R0026071         0.00924  90       9.61123  0.5      0                        
EZG_35           Kostra           R0024906         0.02305  90       15.18087 0.5      0                        
EZG_36           Kostra           R0023453         0.00001  90       0.3624   0.5      0                        
EZG_37           Kostra           R0023452         2.19E-02 90       14.81328 0.5      0                        
EZG_38           Kostra           R0023447         0.00114  90       3.38316  0.5      0                        
EZG_39           Kostra           R0023450         0.00004  90       0.64479  0.5      0                        
EZG_40           Kostra           R0023410         4.79E-03 90       6.92342  0.5      0                        
EZG_41           Kostra           R0038849         0.01305  90       11.42383 0.5      0                        
EZG_42           Kostra           R0023449         0.02383  90       15.43721 0.5      0                        
EZG_43           Kostra           R0023446         0.0281   90       16.76385 0.5      0                        
EZG_44           Kostra           R0023405         0.01345  90       11.59556 0.5      0                        
EZG_45           Kostra           R0023408         0.03063  90       17.50077 0.5      0                        
EZG_46           Kostra           R0040812         0.01347  90       11.60527 0.5      0                        
EZG_47           Kostra           R0023411         0.01272  90       11.2778  0.5      0                        
EZG_48           Kostra           R0023407         0.00001  90       0.32386  0.5      0                        
EZG_49           Kostra           R0023392         9.50E-04 90       3.08866  0.5      0                        
EZG_50           Kostra           R0023410         0.00081  90       2.84882  0.5      0                        
EZG_51           Kostra           R0038849         0.00706  90       8.39957  0.5      0                        
EZG_52           Kostra           R0023405         0.00284  90       5.33381  0.5      0                        
EZG_53           Kostra           R0023408         0.00204  90       4.52037  0.5      0                        
EZG_54           Kostra           R0023411         0.00925  90       9.61854  0.5      0                        
EZG_55           Kostra           R0026072         0.01725  90       13.13414 0.5      0                        
EZG_56           Kostra           R0024906         0.00393  90       6.27159  0.5      0                        
EZG_57           Kostra           R0023453         0.03082  90       17.55549 0.5      0                        
EZG_58           Kostra           R0023452         0.00008  90       0.91795  0.5      0                        
EZG_59           Kostra           R0023447         2.18E-02 90       14.76285 0.5      0                        
EZG_60           Kostra           R0023450         0.02455  90       15.67    0.5      0                        
EZG_61           Kostra           R0023410         0.01852  90       13.61031 0.5      0                        
EZG_62           Kostra           R0023413         0.00642  90       8.01556  0.5      0                        
EZG_63           Kostra           R0023449         0.00789  90       8.88219  0.5      0                        
EZG_64           Kostra           R0023446         0.00485  90       6.96595  0.5      0                        
EZG_65           Kostra           R0023408         0.00014  90       1.17225  0.5      0                        
EZG_66           Kostra           R0023853         0.02318  90       15.22651 0.5      0                        
EZG_67           Kostra           R0023407         0.02642  90       16.25416 0.5      0                        
EZG_68           Kostra           R0023857         0.00449  90       6.70392  0.5      0                        
EZG_69           Kostra           R0023855         0.02862  90       16.91782 0.5      0                        
EZG_70           Kostra           R0026135         0.0066   90       8.12705  0.5      0                        
EZG_71           Kostra           R0026133         0.02648  90       16.27231 0.5      0                        
EZG_72           Kostra           R0026206         0.00425  90       6.52095  0.5      0                        
EZG_73           Kostra           R0026139         0.00027  90       1.64452  0.5      0                        
EZG_74           Kostra           R0026136         0.02978  90       17.25697 0.5      0                        
EZG_75           Kostra           R0026115         0.02179  90       14.76251 0.5      0                        
EZG_76           Kostra           R0023450         0.00138  100      3.71868  0.5      0                        
EZG_77           Kostra           R0023408         0.00418  100      6.4648   0.5      0                        
EZG_78           Kostra           R0038849         0.00142  100      3.76837  0.5      0                        
EZG_79           Kostra           R0023408         0.00497  100      7.05228  0.5      0                        
EZG_80           Kostra           R0023452         0.00173  100      4.1608   0.5      0                        
EZG_81           Kostra           R0038849         0.00137  100      3.70686  0.5      0                        
EZG_82           Kostra           R0038849         0.00119  100      3.44981  0.5      0                        
EZG_83           Kostra           R0023405         0.00024  100      1.54274  0.5      0                        
EZG_84           Kostra           R0023453         0.01086  100      10.4206  30       0                        
EZG_85           Kostra           R0023450         0.01615  100      12.70762 30       0                        
EZG_86           Kostra           R0023450         0.00474  100      6.88388  0.5      0                        
EZG_87           Kostra           R0023450         0.00817  100      9.0392   30       0                        
EZG_88           Kostra           R0026072         0.01855  100      13.61836 30       0                        
EZG_89           Kostra           R0023453         0.02534  100      15.9192  30       0                        
EZG_90           Kostra           R0023453         0.00777  100      8.81271  30       0                        
EZG_91           Kostra           R0023450         0.00095  100      3.07779  30       0                        
EZG_92           Kostra           R0023450         0.00203  100      4.50762  0.5      0                        
EZG_93           Kostra           R0023450         0.00044  100      2.08887  0.5      0                        
EZG_94           Kostra           R0023446         0.0269   100      16.40255 30       0                        
EZG_95           Kostra           R0038849         0.00219  100      4.68392  30       0                        
EZG_96           Kostra           R0023405         0.00814  100      9.02289  30       0                        
EZG_97           Kostra           R0023452         0.00267  100      5.16379  0.5      0                        
EZG_98           Kostra           R0023408         0.01957  100      13.98917 30       0                        
EZG_99           Kostra           R0038849         0.00696  100      8.34507  0.5      0                        
EZG_100          Kostra           R0038849         0.0188   100      13.71242 30       0                        
EZG_101          Kostra           R0023411         0.00636  100      7.9719   30       0                        
EZG_102          Kostra           R0023452         0.00148  100      3.84476  30       0                        
EZG_103          Kostra           R0023449         0.02372  100      15.40203 30       0                        
EZG_104          Kostra           R0023449         0.00339  100      5.82263  0.5      0                        
EZG_105          Kostra           R0023449         0.00031  100      1.76571  0.5      0                        
EZG_106          Kostra           R0023446         0.00209  100      4.56828  0.5      0                        
EZG_107          Kostra           R0023446         0.00495  100      7.03502  30       0                        
EZG_108          Kostra           R0023408         0.00853  100      9.23811  30       0                        
EZG_109          Kostra           R0023408         0.00728  100      8.53276  30       0                        
EZG_110          Kostra           R0023408         0.00561  100      7.48703  0.5      0                        
EZG_111          Kostra           R0023408         0.00865  100      9.30234  30       0                        
EZG_112          Kostra           R0023408         0.003    100      5.47295  0.5      0                        
EZG_113          Kostra           R0023408         0.0045   100      6.70898  0.5      0                        
EZG_114          Kostra           R0024906         0.00025  100      1.58656  0.5      0                        
EZG_115          Kostra           R0023452         0.01103  100      10.50288 0.5      0                        
EZG_116          Kostra           R0026071         0.00095  100      3.08769  30       0                        
EZG_117          Kostra           R0024906         0.0056   100      7.48626  30       0                        
EZG_118          Kostra           R0023452         0.00673  100      8.20657  30       0                        
EZG_119          Kostra           R0023452         0.00283  100      5.32131  0.5      0                        
EZG_120          Kostra           R0023452         0.01304  100      11.41984 30       0                        
EZG_121          Kostra           R0023452         0.0056   100      7.48563  0.5      0                        
EZG_122          Kostra           R0040812         0.00058  100      2.41494  30       0                        
EZG_123          Kostra           R0023405         0.00354  100      5.95194  30       0                        
EZG_124          Kostra           R0023449         0.00188  100      4.33879  30       0                        
EZG_125          Kostra           R0024906         0.01371  90       11.70956 0.5      0                        
EZG_126          Kostra           R0023452         0.00378  90       6.14758  0.5      0                        
EZG_127          Kostra           R0024906         0.00379  90       6.15524  0.5      0                        
EZG_128          Kostra           R0023452         0.00683  90       8.26412  0.5      0                        
EZG_129          Kostra           R0023452         0.00442  90       6.64568  0.5      0                        
EZG_130          Kostra           R0023452         0.01891  90       13.7527  0.5      0                        
EZG_131          Kostra           R0023449         0.02111  90       14.52917 0.5      0                        
EZG_132          Kostra           R0023446         0.00495  90       7.03666  0.5      0                        
EZG_133          Kostra           R0023446         0.03039  90       17.43342 0.5      0                        
EZG_134          Kostra           R0023408         0.02417  90       15.54561 0.5      0                        
EZG_135          Kostra           R0023408         0.01567  90       12.51815 0.5      0                        
EZG_136          Kostra           R0023408         0.00459  90       6.77127  0.5      0                        
EZG_137          Kostra           R0038849         0.00404  90       6.35248  0.5      0                        
EZG_138          Kostra           R0023408         0.00026  90       1.61247  0.5      0                        
EZG_139          Kostra           R0023411         0.00125  90       3.54138  0.5      0                        
EZG_140          Kostra           R0038849         0.00056  90       2.36942  0.5      0                        
EZG_141          Kostra           R0023405         0.00563  90       7.50351  0.5      0                        
EZG_142          Kostra           R0023450         0.02767  90       16.63419 0.5      0                        
EZG_143          Kostra           R0023453         0.04525  90       21.27157 0.5      0                        
EZG_144          Kostra           R0026072         0.03357  95       18.32175 0.5      0                        
EZG_145          Kostra           R0026071         0.03057  95       17.48371 0.5      0                        
EZG_146          Kostra           R0024906         0.05565  95       23.5893  0.5      0                        
EZG_147          Kostra           R0023453         0.04202  95       20.49912 0.5      0                        
EZG_148          Kostra           R0038843         0.03303  95       18.17358 0.5      0                        
EZG_149          Kostra           R0023452         0.0471   95       21.70227 0.5      0                        
EZG_150          Kostra           R0023447         0.05223  95       22.85316 0.5      0                        
EZG_151          Kostra           R0023450         0.04662  95       21.59206 0.5      0                        
EZG_152          Kostra           R0023410         0.05462  95       23.37177 0.5      0                        
EZG_153          Kostra           R0023413         0.03967  95       19.91857 0.5      0                        
EZG_154          Kostra           R0023449         0.06564  95       25.62056 0.5      0                        
EZG_155          Kostra           R0023446         0.06309  95       25.11836 0.5      0                        
EZG_156          Kostra           R0023408         0.05512  95       23.47755 0.5      0                        
EZG_157          Kostra           R0023411         0.03104  95       17.61735 0.5      0                        
EZG_158          Kostra           R0023853         0.0221   95       14.86636 0.5      0                        
EZG_159          Kostra           R0023407         0.05357  95       23.14509 0.5      0                        
EZG_160          Kostra           R0023857         0.03784  95       19.45178 0.5      0                        
EZG_161          Kostra           R0023855         0.03709  95       19.2576  0.5      0                        
EZG_162          Kostra           R0026139         0.0148   95       12.16595 0.5      0                        
EZG_163          Kostra           R0026135         0.04334  95       20.81759 0.5      0                        
EZG_164          Kostra           R0026133         0.03837  95       19.58726 0.5      0                        
EZG_165          Kostra           R0026206         0.04026  95       20.06394 0.5      0                        
EZG_166          Kostra           R0026213         0.04147  95       20.36302 0.5      0                        
EZG_167          Kostra           R0026139         0.03404  95       18.4495  0.5      0                        
EZG_168          Kostra           R0026136         0.03462  95       18.60621 0.5      0                        
EZG_169          Kostra           R0026117         0.0472   95       21.72641 0.5      0                        
EZG_170          Kostra           R0026115         0.03732  95       19.31849 0.5      0                        
EZG_171          Kostra           R0026211         0.03785  95       19.45462 0.5      0                        
EZG_172          Kostra           R0039644         0.05451  95       23.34679 0.5      0                        
EZG_173          Kostra           R0040779         0.0257   95       16.03152 0.5      0                        
EZG_174          Kostra           R0026576         0.03527  95       18.78024 0.5      0                        
EZG_175          Kostra           R0026210         0.04722  95       21.73114 0.5      0                        
EZG_176          Kostra           R0026216         0.03918  95       19.79499 0.5      0                        
EZG_177          Kostra           R0026218         0.00955  95       9.772    0.5      0                        
EZG_178          Kostra           R0023548         0.05026  95       22.41818 0.5      0                        
EZG_179          Kostra           R0026215         0.03241  95       18.00243 0.5      0                        
EZG_180          Kostra           R0023643         0.04914  95       22.16721 0.5      0                        
EZG_181          Kostra           R0023547         0.05004  95       22.37049 0.5      0                        
EZG_182          Kostra           R0023539         0.04004  95       20.00957 0.5      0                        
EZG_183          Kostra           R0023645         0.0183   95       13.52758 0.5      0                        
EZG_184          Kostra           R0026629         0.00115  95       3.39391  0.5      0                        
EZG_185          Kostra           R0023650         0.05203  95       22.81048 0.5      0                        
EZG_186          Kostra           R0026208         0.05036  95       22.44163 0.5      0                        
EZG_187          Kostra           R0023649         0.05513  95       23.48028 0.5      0                        
EZG_188          Kostra           R0023644         0.03658  95       19.12717 0.5      0                        
EZG_189          Kostra           R0023647         0.06092  95       24.68246 0.5      0                        
EZG_190          Kostra           R0026628         0.01451  95       12.04562 0.5      0                        
EZG_191          Kostra           R0026632         0.0012   95       3.45846  0.5      0                        
EZG_192          Kostra           R0026632         0.02854  95       16.89268 0.5      0                        
EZG_193          Kostra           R0026636         0.03692  95       19.21529 0.5      0                        
EZG_194          Kostra           R0026636         0.0273   0        16.52194 0.5      0                        
EZG_195          Kostra           R0026629         0.00002  0        0.45491  0.5      0                        
EZG_196          Kostra           R0029386         2.45E-02 0        15.65657 0.5      0                        
EZG_197          Kostra           R0026628         0.00325  0        5.70457  0.5      0                        
EZG_198          Kostra           R0026632         0.00857  0        9.25937  0.5      0                        
EZG_199          Kostra           R0026631         0.03315  0        18.20599 0.5      0                        
EZG_200          Kostra           R0026632         0.00004  0        0.63232  0.5      0                        
EZG_201          Kostra           R0026630         1.23E-02 0        11.10821 0.5      0                        
EZG_202          Kostra           R0026636         0.00724  0        8.5113   0.5      0                        
EZG_203          Kostra           R0043251         0.00479  0        6.91739  0.5      0                        
EZG_204          Kostra           R0029388         0.00914  0        9.56052  0.5      0                        
EZG_205          Kostra           R0029387         0.01329  0        11.52862 0.5      0                        
EZG_206          Kostra           R0029386         0.00721  0        8.48976  0.5      0                        
EZG_207          Kostra           R0029394         0.00942  0        9.70539  0.5      0                        
EZG_208          Kostra           R0029393         0.01451  0        12.04756 0.5      0                        
EZG_209          Kostra           R0029390         0.01742  0        13.19919 0.5      0                        
EZG_210          Kostra           R0029388         0.0028   0        5.29445  0.5      0                        
EZG_211          Kostra           R0029391         0.0137   0        11.70377 0.5      0                        
EZG_212          Kostra           R0029389         0.0152   0        12.32729 0.5      0                        
EZG_213          Kostra           R0029392         0.01541  0        12.41326 0.5      0                        
EZG_214          Kostra           R0023645         0.03733  0        19.32042 0.5      0                        
EZG_215          Kostra           R0023649         0.01627  0        12.75556 0.5      0                        
EZG_216          Kostra           R0029387         0.10795  0        32.85636 0.5      0                        
EZG_217          Kostra           R0029386         0.03732  0        19.31808 0.5      0                        
EZG_218          Kostra           R0029385         0.21047  0        45.87739 0.5      0                        
EZG_219          Kostra           R0023644         0.09563  0        30.92394 0.5      0                        
EZG_220          Kostra           R0026637         0.0132   0        11.48771 0.5      0                        
EZG_221          Kostra           R0026632         0.00247  0        4.9664   0.5      0                        
EZG_222          Kostra           R0023648         0.02138  0        14.62033 0.5      0                        
EZG_223          Kostra           R0026637         0.00172  0        4.15229  0.5      0                        
EZG_224          Kostra           R0023649         0.00209  0        4.57656  0.5      0                        
EZG_225          Kostra           R0023647         0.04988  0        22.33334 0.5      0                        
EZG_226          Kostra           R0023650         0.01744  0        13.20431 0.5      0                        
EZG_227          Kostra           R0023649         0.00549  0        7.40651  0.5      0                        
EZG_228          Kostra           R0023648         0.0062   90       7.87295  0.5      0                        
EZG_229          Kostra           R0026637         0.01206  90       10.98179 0.5      0                        
EZG_230          Kostra           R0023649         0.00228  90       4.78016  0.5      0                        
EZG_231          Kostra           R0026628         0.00639  90       7.99556  0.5      0                        
EZG_232          Kostra           R0026632         0.00671  90       8.19141  0.5      0                        
EZG_233          Kostra           R0026213         0.02478  90       15.74102 0.5      0                        
EZG_234          Kostra           R0026117         0.00842  90       9.1744   0.5      0                        
EZG_235          Kostra           R0026211         0.0045   90       6.70448  0.5      0                        
EZG_236          Kostra           R0039644         0.03281  90       18.11284 0.5      0                        
EZG_237          Kostra           R0040779         0.00002  90       0.44323  0.5      0                        
EZG_238          Kostra           R0026576         1.21E-02 90       10.98295 0.5      0                        
EZG_239          Kostra           R0026210         0.02153  90       14.67304 0.5      0                        
EZG_240          Kostra           R0023548         0.03149  90       17.7459  0.5      0                        
EZG_241          Kostra           R0026215         0.02702  90       16.43681 0.5      0                        
EZG_242          Kostra           R0023643         0.02272  90       15.07279 0.5      0                        
EZG_243          Kostra           R0023547         0.03776  90       19.43108 0.5      0                        
EZG_244          Kostra           R0023650         0.03292  90       18.14498 0.5      0                        
EZG_245          Kostra           R0026208         0.00028  90       1.68812  0.5      0                        
EZG_246          Kostra           R0023649         0.00858  90       9.26218  0.5      0                        
EZG_247          Kostra           R0023644         0.0006   90       2.44414  0.5      0                        
EZG_248          Kostra           R0029386         0.00379  90       6.15942  0.5      0                        
EZG_249          Kostra           R0026628         0.00282  90       5.31502  0.5      0                        
EZG_250          Kostra           R0026632         0.00258  90       5.07921  0.5      0                        