[OPTIONS]
FLOW_UNITS CMS
INFILTRATION HORTON
FLOW_ROUTING DYNWAVE
LINK_OFFSETS ELEVATION
MIN_SLOPE 0
ALLOW_PONDING NO
SKIP_STEADY_STATE NO
IGNORE_RDII YES
IGNORE_SNOWMELT YES
IGNORE_GROUNDWATER YES
IGNORE_QUALITY YES
START_DATE 01/01/2024
START_TIME 00:00:00
REPORT_START_DATE 01/01/2024
REPORT_START_TIME 00:00:00
END_DATE 04/01/2024
END_TIME 04:00:00
SWEEP_START 01/01
SWEEP_END 12/31
DRY_DAYS 0
REPORT_STEP 00:01:00
WET_STEP 00:01:00
DRY_STEP 00:01:00
ROUTING_STEP 0:00:01
RULE_STEP 00:00:00
INERTIAL_DAMPING PARTIAL
NORMAL_FLOW_LIMITED BOTH
FORCE_MAIN_EQUATION D-W
SURCHARGE_METHOD SLOT
VARIABLE_STEP 0.75
LENGTHENING_STEP 1
MIN_SURFAREA 1.167
MAX_TRIALS 8
HEAD_TOLERANCE 0.0015
SYS_FLOW_TOL 5
LAT_FLOW_TOL 5
MINIMUM_STEP 0.5
THREADS 16

[EVAPORATION]
CONSTANT 1.5
DRY_ONLY YES

[SUBCATCHMENTS]
EZG_371814 N1 R0019247 0.00161447725554 100 4.0180558178552 1 0 
EZG_372414 N1 R0019839 0.0482404902346 100 21.9637178625569 1 0 
EZG_377174 N1 R0019719 0.00320792363032 100 5.66385348532252 1 0 
EZG_377175 N1 R0019346 0.0191256356543 100 13.8295465053269 1 0 
EZG_372123 N1 R0019466 0.154245247562 100 39.2740687428741 1 0 
EZG_374545 N1 R0019247 0.0924954290636 100 30.4130611848923 1 0 
EZG_376311 N1 R0019717 0.000306315131068 100 1.75018607887276 1 0 
EZG_372345 N1 R0019831 0.303353732778 100 55.0775573875603 1 0 
EZG_374016 N1 R0019839 0.0567424198214 100 23.8206674594563 1 0 
EZG_377168 N1 R0021453 0.0177449984734 100 13.321035422744 1 0 
EZG_377169 N1 R0043594 0.102367887714 100 31.9949820618796 1 0 
EZG_377170 N1 R0019203 0.00572171757445 100 7.56420357635224 1 0 
EZG_377171 N1 R0019203 0.0590970952953 100 24.3098941370175 1 0 
EZG_377172 N1 R0019718 0.0188252228498 100 13.7205039447536 1 0 
EZG_377173 N1 R0019719 0.0243563009078 100 15.6065053448234 1 0 
EZG_375500 N1 R0019717 0.00645084470263 100 8.03171507377472 1 0 
EZG_374010 N1 R0019202 0.0230953895832 100 15.1971673621106 1 0 
EZG_374347 N1 R0019839 0.00459112537002 100 6.77578436051502 1 0 
EZG_374348 N1 R0019838 0.00824396687502 100 9.07962932889884 1 0 
EZG_374361 N1 R0019839 0.0004047403469 100 2.01181596300457 1 0 
EZG_376910 N1 R0019839 0.00267934006929 100 5.17623421928529 1 0 
EZG_374363 N1 R0019839 0.00079266103848 100 2.81542365991337 1 0 
EZG_376872 N1 R0019838 0.0011247258756 100 3.35369330082523 1 0 
EZG_374365 N1 R0019839 0.00607228059065 100 7.79248393687789 1 0 
EZG_376905 N1 R0019838 0.00376785168595 100 6.13828289177845 1 0 
EZG_374579 N1 R0021435 0.0078614265109 100 8.8664685816282 1 0 
EZG_374022 N1 R0019373 0.0409898768822 100 20.2459568512333 1 0 
EZG_377176 N1 R0019721 0.0188702045711 100 13.7368863179033 1 0 
EZG_377177 N1 R0019723 0.0752648567567 100 27.4344412658067 1 0 
EZG_376911 N1 R0019839 0.00383394344794 100 6.19188456605903 1 0 
EZG_376906 N1 R0019838 0.00383743401126 100 6.19470258467669 1 0 
EZG_377114 N1 R0019466 0.00490148938579 75 7.0010637661644 1 0 
EZG_376013 N1 R0019831 0.0066276190439 100 8.14101900495264 1 0 
EZG_373155 N1 R0021458 0.112248571746 100 33.503517986325 1 0 
EZG_372951 N1 R0019717 0.0110006521738 100 10.4883993887533 1 0 
EZG_376036 N1 R0019831 0.00118770992522 100 3.44631676608521 1 0 
EZG_374570 N1 R0019718 0.00133663120334 100 3.65599672229065 1 0 
EZG_373154 N1 R0021442 0.0840783090159 100 28.9962599339811 1 0 
EZG_373066 N1 R0019831 0.0126527019575 100 11.2484229816895 1 0 
EZG_376376 N1 R0019468 0.00227084749995 100 4.76534101607639 1 0 
EZG_374561 N1 R0019718 0.0312805673924 100 17.686313180649 1 0 
EZG_372961 N1 R0043703 0.00116443652651 100 3.41238410280847 1 0 
EZG_373033 N1 R0019831 0.00162530831606 100 4.03151127501834 1 0 
EZG_374425 N1 R0019252 0.00547570010844 100 7.39979736779326 1 0 
EZG_374509 N1 R0019723 0.0017657771954 100 4.20211517619401 1 0 
EZG_373080 N1 R0019717 0.00179342511749 100 4.23488502499182 1 0 
EZG_372269 N1 R0019717 0.00124651720524 100 3.53060505471796 1 0 
EZG_376051 N1 R0019825 0.000921299316723 100 3.03529128210622 1 0 
EZG_374513 N1 R0019254 0.0016876256866 100 4.10807215929808 1 0 
EZG_376335 N1 R0043702 0.00821400269995 100 9.06311353782463 1 0 
EZG_372925 N1 R0043702 0.106288794411 100 32.6019622739184 1 0 
EZG_375518 N1 R0043703 0.000839560978195 100 2.89751786568263 1 0 
EZG_372924 N1 R0019838 0.169452083595 100 41.1645580074656 1 0 
EZG_372948 N1 R0019717 0.000767604102878 100 2.77056691469093 1 0 
EZG_374529 N1 R0019254 0.00122110030764 100 3.49442457014027 1 0 
EZG_374429 N1 R0019252 0.00579012506519 100 7.60928713165038 1 0 
EZG_372954 N1 R0019716 0.00067214080971 100 2.59256785776188 1 0 
EZG_373159 N1 R0043702 0.00136968166781 100 3.7009210580746 1 0 
EZG_373134 N1 R0013935 0.00278953319821 100 5.28160316401185 1 0 
EZG_372933 N1 R0043594 0.00467434947548 100 6.83692143839609 1 0 
EZG_375741 N1 R0019825 0.00125814150756 100 3.54702904916213 1 0 
EZG_372955 N1 R0019716 0.000641770943948 100 2.5333198454755 1 0 
EZG_376997 N1 R0013935 0.00122265957572 100 3.4966549382517 1 0 
EZG_373079 N1 R0019717 0.00179693716912 100 4.23902956951234 1 0 
EZG_373119 N1 R0019825 0.0123658157328 100 11.120168943321 1 0 
EZG_374480 N1 R0021442 0.00538849506373 100 7.34063693675828 1 0 
EZG_374563 N1 R0019718 0.00189805529544 100 4.35666764332557 1 0 
EZG_372952 N1 R0019717 0.000245956400969 100 1.56829971934258 1 0 
EZG_372999 N1 R0019825 0.00370938031768 100 6.09046822311717 1 0 
EZG_373147 N1 R0019466 0.0032966205485 100 5.74162045811111 1 0 
EZG_376360 N1 R0019373 0.00183480947995 100 4.28346761391983 1 0 
EZG_376039 N1 R0019825 0.00357565219319 100 5.97967573802292 1 0 
EZG_372959 N1 R0043703 0.0137480144411 100 11.7251927238319 1 0 
EZG_373031 N1 R0019831 0.000538612390462 100 2.3208024268817 1 0 
EZG_375504 N1 R0019717 0.0266985847691 100 16.3397015790069 1 0 
EZG_376377 N1 R0019466 0.00185820748492 100 4.31069308223167 1 0 
EZG_373166 N1 R0019939 0.00140319928463 100 3.74593017103896 1 0 
EZG_375520 N1 R0019831 0.00133147585631 100 3.64893937509244 1 0 
EZG_373120 N1 R0019825 0.0017869114399 100 4.22718752825091 1 0 
EZG_372995 N1 R0019716 0.0883351803181 100 29.721234886542 1 0 
EZG_373158 N1 R0043594 0.137816696607 100 37.1236712364227 1 0 
EZG_374486 N1 R0021442 0.00527441911939 100 7.26251961745371 1 0 
EZG_376050 N1 R0019825 0.00322870652673 100 5.68217082348815 1 0 
EZG_372931 N1 R0019202 0.00188333052903 100 4.33973562447069 1 0 
EZG_373162 N1 R0019825 0.00519927394864 100 7.21059910731418 1 0 
EZG_373063 N1 R0019831 0.00171888005381 100 4.14593783577371 1 0 
EZG_376012 N1 R0019831 0.00121296061439 100 3.48275841021165 1 0 
EZG_373164 N1 R0019831 0.000863333864362 100 2.93825435311853 1 0 
EZG_374515 N1 R0019723 0.00937013362652 100 9.67994505486472 1 0 
EZG_373139 N1 R0019466 0.00364886787663 100 6.0405859621646 1 0 
EZG_374481 N1 R0021442 0.000975218943821 100 3.12284957021788 1 0 
EZG_372950 N1 R0019717 0.000757146274635 100 2.75162910770147 1 0 
EZG_373157 N1 R0021433 0.0567219314555 100 23.8163665271384 1 0 
EZG_373170 N1 R0019939 0.00158342549864 100 3.97922793848254 1 0 
EZG_374428 N1 R0019252 0.0273053474248 100 16.524329766983 1 0 
EZG_374564 N1 R0019718 0.0168349898509 100 12.9749720041702 1 0 
EZG_373132 N1 R0013935 0.00279673956573 100 5.28842090394666 1 0 
EZG_374431 N1 R0019252 0.0209920823258 100 14.4886446315037 1 0 
EZG_374512 N1 R0019254 0.00449759625877 100 6.70641205024714 1 0 
EZG_374436 N1 R0019252 0.00237284267709 100 4.87118330294601 1 0 
EZG_373137 N1 R0019466 0.00148804950396 100 3.85752447038253 1 0 
EZG_373151 N1 R0019466 0.00305303376714 100 5.52542646964015 1 0 
EZG_373152 N1 R0013935 0.00320673316875 100 5.6628024588096 1 0 
EZG_373167 N1 R0019939 0.00158533624475 100 3.98162811516847 1 0 
EZG_373156 N1 R0021433 0.0584200109971 100 24.170231897336 1 0 
EZG_373169 N1 R0019939 0.00237209151996 100 4.87041222070576 1 0 
EZG_373143 N1 R0019466 0.00173723874163 100 4.16801960363672 1 0 
EZG_376356 N1 R0019373 0.00146973077273 100 3.83370678681873 1 0 
EZG_373145 N1 R0019466 0.00215407590558 100 4.64120232868596 1 0 
EZG_376317 N1 R0019717 0.000832813830818 100 2.88585140091793 1 0 
EZG_373001 N1 R0019825 0.00351866195376 100 5.93183104425607 1 0 
EZG_376984 N1 R0019468 0.00190921963514 100 4.36946179196019 1 0 
EZG_376040 N1 R0019825 0.00527840632553 100 7.26526415592028 1 0 
EZG_376307 N1 R0019825 0.00348192195538 100 5.90078126639176 1 0 
EZG_374514 N1 R0019254 0.00508324122764 100 7.12968528592953 1 0 
EZG_374437 N1 R0019252 0.00394055957292 100 6.27738765165893 1 0 
EZG_372944 N1 R0019717 0.0020973199045 100 4.57965053743187 1 0 
EZG_376325 N1 R0019716 0.000688136868343 100 2.6232362995792 1 0 
EZG_375747 N1 R0019831 0.00133829391511 100 3.65826996695159 1 0 
EZG_374483 N1 R0021442 0.00429093838792 100 6.5505254658844 1 0 
EZG_374484 N1 R0021442 0.0230479671761 100 15.1815569610301 1 0 
EZG_374485 N1 R0021442 0.00322744304638 100 5.68105892099352 1 0 
EZG_372929 N1 R0019838 0.00841346655915 100 9.1724950581344 1 0 
EZG_372930 N1 R0043594 0.26267281715 100 51.2516162818306 1 0 
EZG_374118 N1 R0013935 0.000702947418132 100 2.65131555672274 1 0 
EZG_376052 N1 R0019825 0.000743732314006 100 2.72714560301792 1 0 
EZG_372932 N1 R0021453 0.00651706323478 100 8.07283298153752 1 0 
EZG_374432 N1 R0019252 0.000506608223928 100 2.25079591240077 1 0 
EZG_374569 N1 R0019718 0.00823709905015 100 9.07584654462051 1 0 
EZG_372421 N1 R0019831 0.00172074342801 100 4.14818445589152 1 0 
EZG_373078 N1 R0019717 0.00179843072085 100 4.24079087063958 1 0 
EZG_374482 N1 R0021442 0.00251041729267 100 5.01040646322232 1 0 
EZG_376354 N1 R0019373 0.000590392174415 100 2.42979870445064 1 0 
EZG_374562 N1 R0019718 0.00161811431365 100 4.02257916472753 1 0 
EZG_373192 N1 R0021435 0.000292917807223 100 1.71148417235743 1 0 
EZG_376021 N1 R0019831 0.00525523432482 100 7.24929950051727 1 0 
EZG_374510 N1 R0019723 0.00176910252494 100 4.20607004808527 1 0 
EZG_374511 N1 R0019254 0.00324533984904 100 5.69678843651403 1 0 
EZG_374567 N1 R0019719 0.0144378045628 100 12.0157415762823 1 0 
EZG_374430 N1 R0019254 0.00122330735392 100 3.49758109830208 1 0 
EZG_376316 N1 R0019717 0.000874577467865 100 2.95732559564381 1 0 
EZG_375755 N1 R0019717 0.000705168392224 100 2.65550069144032 1 0 
EZG_373142 N1 R0019466 0.00158559987073 100 3.98195915439875 1 0 
EZG_372927 N1 R0019373 0.00850869880493 100 9.22426084026791 1 0 
EZG_373141 N1 R0019466 0.00224903420986 100 4.74239834878935 1 0 
EZG_372928 N1 R0019466 0.137267235008 100 37.0495931162543 1 0 
EZG_376037 N1 R0019825 0.00106735691806 100 3.26704288012876 1 0 
EZG_373148 N1 R0019466 0.00147208593388 100 3.83677720734473 1 0 
EZG_374566 N1 R0019719 0.0118009136474 100 10.8632010233632 1 0 
EZG_372926 N1 R0019839 0.106878293306 100 32.6922457634834 1 0 
EZG_372964 N1 R0019944 0.000465716622066 100 2.15804685321241 1 0 
EZG_373059 N1 R0019831 0.00714643867073 100 8.45366114220933 1 0 
EZG_376326 N1 R0019716 0.00447634132735 50 6.69054656014738 1 0 
EZG_374142 N1 R0019944 0.000352154779736 50 1.87657874797729 1 0 
EZG_376049 N1 R0019825 0.000485786621032 50 2.20405676204584 1 0 
EZG_374141 N1 R0019944 0.0036853205543 50 6.07068410831926 1 0 
EZG_377102 N1 R0043703 0.00444921303394 50 6.67024214998226 1 0 
EZG_376999 N1 R0019825 0.000710744970418 50 2.66598006447535 1 0 
EZG_377101 N1 R0019716 0.0012822969185 50 3.58091736640208 1 0 
EZG_374417 N1 R0019252 0.000860881224554 100 2.93407775042517 1 0 
EZG_374230 N1 R0021458 0.0412923001075 100 20.3205069098928 1 0 
EZG_374392 N1 R0019247 0.0014093945963 100 3.75419045374632 1 0 
EZG_374416 N1 R0019254 0.000798292451555 100 2.82540696458935 1 0 
EZG_372268 N1 R0019717 0.00721709104378 100 8.49534639892924 1 0 
EZG_372322 N1 R0019466 0.00194447061528 100 4.40961519327934 1 0 
EZG_374556 N1 R0019718 0.00273022097486 100 5.22515164838304 1 0 
EZG_374234 N1 R0019718 0.00111766558228 100 3.34315058332705 1 0 
EZG_374342 N1 R0019838 0.000680366468394 100 2.60838353850426 1 0 
EZG_374298 N1 R0021458 0.0020289918079 100 4.50443315845623 1 0 
EZG_375683 N1 R0019724 0.00039785244866 100 1.99462389602652 1 0 
EZG_374290 N1 R0021458 0.00209116561556 100 4.57292643234067 1 0 
EZG_374258 N1 R0019203 0.00425399894529 100 6.52226873510284 1 0 
EZG_374302 N1 R0021442 0.00326783454692 100 5.71649765758721 1 0 
EZG_374260 N1 R0019346 0.00810620262815 100 9.00344524509923 1 0 
EZG_374227 N1 R0019717 0.00546200792083 100 7.39053984552549 1 0 
EZG_372270 N1 R0019717 0.00373798121492 100 6.11390318448044 1 0 
EZG_374310 N1 R0021458 0.00163514695825 100 4.04369504073935 1 0 
EZG_374333 N1 R0043594 0.00278440531892 100 5.27674645868077 1 0 
EZG_374447 N1 R0019252 0.000832088445166 100 2.88459433051859 1 0 
EZG_374552 N1 R0019719 0.00392190436925 100 6.26251097344348 1 0 
EZG_374412 N1 R0019252 0.00084651486694 100 2.90949285433046 1 0 
EZG_374129 N1 R0013935 0.00360818868481 100 6.00682002794324 1 0 
EZG_374554 N1 R0019718 0.000373365649845 100 1.93226719126781 1 0 
EZG_374555 N1 R0019718 0.00172413638279 100 4.15227212835334 1 0 
EZG_374418 N1 R0019252 0.000841127912494 100 2.90022053039765 1 0 
EZG_374259 N1 R0019718 0.091592620014 100 30.26427266828 1 0 
EZG_374124 N1 R0013935 0.00209811820488 100 4.58052202797891 1 0 
EZG_374396 N1 R0021442 0.000675980050899 100 2.59996163606119 1 0 
EZG_375522 N1 R0019831 0.000303790633807 100 1.74295907527113 1 0 
EZG_374398 N1 R0021442 0.000862784711265 100 2.9373197157698 1 0 
EZG_374549 N1 R0019718 0.00301332284652 100 5.48937414148462 1 0 
EZG_374299 N1 R0021458 0.0016745260613 100 4.09209733669667 1 0 
EZG_374143 N1 R0019944 0.00261367974773 100 5.11241601176 1 0 
EZG_375694 N1 R0019723 0.000621713930589 100 2.49341919979172 1 0 
EZG_372333 N1 R0019831 0.00513670606146 100 7.1670817362857 1 0 
EZG_374387 N1 R0021442 0.000899436771718 100 2.99906113928676 1 0 
EZG_374388 N1 R0021442 0.00415779119729 100 6.44809366967478 1 0 
EZG_375516 N1 R0043703 0.0297228513343 100 17.2403165093626 1 0 
EZG_374225 N1 R0019717 0.00183339270768 100 4.28181352662631 1 0 
EZG_375551 N1 R0019717 0.000695278187495 100 2.63681282516412 1 0 
EZG_372326 N1 R0019468 0.00367091442158 100 6.05880716113329 1 0 
EZG_372133 N1 R0019716 0.00767915924011 100 8.76308121616478 1 0 
EZG_374126 N1 R0013935 0.00030028945103 100 1.73288617926856 1 0 
EZG_376381 N1 R0019944 0.000561544238965 100 2.36969246731512 1 0 
EZG_374338 N1 R0021433 0.000713679125079 100 2.67147735359857 1 0 
EZG_374229 N1 R0019202 0.0519543155404 100 22.7934893205055 1 0 
EZG_374256 N1 R0021458 0.00348754965495 100 5.90554794659225 1 0 
EZG_375546 N1 R0019716 0.00188328599054 100 4.33968430941699 1 0 
EZG_372147 N1 R0019717 0.0111885557435 100 10.577596959376 1 0 
EZG_374301 N1 R0021442 0.00415780152188 100 6.44810167559414 1 0 
EZG_374147 N1 R0019944 0.000245521165492 100 1.5669115019426 1 0 
EZG_374149 N1 R0019944 0.0167631658929 100 12.9472645346034 1 0 
EZG_374304 N1 R0021458 0.031467140802 100 17.7389799035908 1 0 
EZG_375785 N1 R0019717 0.00423875616303 100 6.51057306466182 1 0 
EZG_376043 N1 R0019825 0.00539885021789 100 7.3476868590666 1 0 
EZG_372304 N1 R0019825 0.0132432164841 100 11.5079174849753 1 0 
EZG_374226 N1 R0019717 0.00894978742735 100 9.46033161540863 1 0 
EZG_374128 N1 R0013935 0.00278264591316 100 5.27507906401411 1 0 
EZG_374130 N1 R0013935 0.00213530330414 100 4.62093421738505 1 0 
EZG_375558 N1 R0019717 0.000550429111998 100 2.3461225713888 1 0 
EZG_375559 N1 R0019717 0.000645948569974 100 2.54155182904854 1 0 
EZG_372186 N1 R0019716 0.0262481480076 100 16.2012801986757 1 0 
EZG_375574 N1 R0019717 0.001678400196 100 4.09682828051164 1 0 
EZG_375562 N1 R0019717 0.000799920824981 100 2.82828715830094 1 0 
EZG_375517 N1 R0043703 0.00114140161688 100 3.37846358109718 1 0 
EZG_374318 N1 R0021453 0.00174076236006 100 4.17224443202936 1 0 
EZG_376015 N1 R0019831 0.000933862083193 100 3.05591571086802 1 0 
EZG_374559 N1 R0019719 0.00309775631899 100 5.5657491130934 1 0 
EZG_374240 N1 R0043594 0.00147129632786 100 3.83574807287966 1 0 
EZG_374422 N1 R0019252 0.000754059153102 100 2.74601375288253 1 0 
EZG_375509 N1 R0043703 0.00130612773333 100 3.61403892249378 1 0 
EZG_374297 N1 R0021458 0.00162030423164 100 4.02530027655081 1 0 
EZG_375691 N1 R0019723 0.0027108147033 100 5.20654847600596 1 0 
EZG_373194 N1 R0019254 0.0267533385276 100 16.3564478196215 1 0 
EZG_372405 N1 R0043702 0.0271042456653 100 16.4633671116512 1 0 
EZG_374448 N1 R0019254 0.00145966044375 100 3.82055027941002 1 0 
EZG_375548 N1 R0019716 0.00279571395358 100 5.28745113791135 1 0 
EZG_374303 N1 R0021442 0.00270316467207 100 5.19919673802598 1 0 
EZG_374291 N1 R0021458 0.00219519029025 100 4.68528578664098 1 0 
EZG_374027 N1 R0021453 0.00496728427635 100 7.04789633603531 1 0 
EZG_375552 N1 R0019717 0.000517069404308 100 2.27391601495746 1 0 
EZG_375639 N1 R0043594 0.0163326244394 100 12.7799156645887 1 0 
EZG_375787 N1 R0019717 0.00110313528197 100 3.32134804254237 1 0 
EZG_374503 N1 R0019254 0.000820065106369 100 2.86367789105025 1 0 
EZG_372180 N1 R0019716 0.0313395913708 100 17.7029916598297 1 0 
EZG_374257 N1 R0021458 0.00401725921783 100 6.33818524329322 1 0 
EZG_372399 N1 R0019716 0.104228711559 100 32.2844717409159 1 0 
EZG_375645 N1 R0019724 0.00338522781611 100 5.81827106287598 1 0 
EZG_375667 N1 R0019723 0.000401632814556 100 2.00407787911548 1 0 
EZG_375668 N1 R0019723 0.000452812465679 100 2.12793906322291 1 0 
EZG_375549 N1 R0019716 0.00276073987525 100 5.25427433167512 1 0 
EZG_375682 N1 R0019724 0.00163873305448 100 4.04812679455572 1 0 
EZG_376893 N1 R0043702 0.00239349118991 100 4.89233194898915 1 0 
EZG_372324 N1 R0019466 0.00169742358784 100 4.11998008228195 1 0 
EZG_374123 N1 R0013935 0.00181563271386 100 4.26102418892454 1 0 
EZG_374420 N1 R0019252 0.000991855091747 100 3.14937309912147 1 0 
EZG_374295 N1 R0021458 0.00205850401494 100 4.53707396340417 1 0 
EZG_374255 N1 R0021458 0.0032012704811 100 5.65797709530535 1 0 
EZG_375643 N1 R0021458 0.00325039309854 100 5.70122188529792 1 0 
EZG_375644 N1 R0021458 0.00351368462776 100 5.92763412143496 1 0 
EZG_376343 N1 R0019468 0.00615975443239 100 7.84841030552685 1 0 
EZG_376344 N1 R0019468 0.00163911266099 100 4.04859563427863 1 0 
EZG_374131 N1 R0013935 0.00626571050645 100 7.91562411086454 1 0 
EZG_375669 N1 R0019723 0.000531231470106 100 2.30484591698881 1 0 
EZG_374135 N1 R0019939 0.000768615193289 100 2.7723910137082 1 0 
EZG_374360 N1 R0019839 0.0920843256937 100 30.3453992713393 1 0 
EZG_374249 N1 R0019202 0.00235898671447 100 4.85694010099981 1 0 
EZG_374137 N1 R0019944 0.0116319380823 100 10.7851463051273 1 0 
EZG_375743 N1 R0019825 0.00346618234537 100 5.88742927377476 1 0 
EZG_375687 N1 R0019723 0.0124973687621 100 11.1791631002057 1 0 
EZG_374336 N1 R0021433 0.025426878971 100 15.9458079039602 1 0 
EZG_374504 N1 R0019254 0.000844437411829 100 2.90592052855717 1 0 
EZG_372181 N1 R0019717 0.0249418789336 100 15.7929981110618 1 0 
EZG_376939 N1 R0019346 0.000973519141303 100 3.1201268264335 1 0 
EZG_374385 N1 R0021442 0.000851564440049 100 2.91815770658304 1 0 
EZG_374144 N1 R0019944 0.00186547501976 100 4.31911451545337 1 0 
EZG_375757 N1 R0019717 0.000252118425035 100 1.58782374662618 1 0 
EZG_375781 N1 R0019717 0.0207037905582 100 14.3888118196743 1 0 
EZG_374451 N1 R0019254 0.0246641581541 100 15.7048266956691 1 0 
EZG_374390 N1 R0021442 0.00676865359445 100 8.22718274651171 1 0 
EZG_375784 N1 R0019717 0.00275057577921 100 5.24459319605439 1 0 
EZG_376364 N1 R0019466 0.0020577423413 100 4.53623449713526 1 0 
EZG_375640 N1 R0021458 0.00456295482366 100 6.75496471024091 1 0 
EZG_375688 N1 R0019721 0.00183707945899 100 4.28611649280558 1 0 
EZG_376355 N1 R0019373 0.000699926090415 100 2.64561163139075 1 0 
EZG_375544 N1 R0019716 0.00118226406037 100 3.43840669550593 1 0 
EZG_374228 N1 R0021453 0.00559242295732 100 7.47825043530905 1 0 
EZG_374411 N1 R0019252 0.000736941315498 100 2.71466630637727 1 0 
EZG_375512 N1 R0043703 0.0024598028295 100 4.95963993602358 1 0 
EZG_374413 N1 R0019252 0.000893440057229 100 2.98904676649429 1 0 
EZG_372145 N1 R0019717 0.0059842414534 100 7.73578790647727 1 0 
EZG_374415 N1 R0019252 0.000863546531655 100 2.93861622478166 1 0 
EZG_376375 N1 R0019468 0.00411479444629 100 6.41466635631971 1 0 
EZG_375564 N1 R0019717 0.00480919348962 100 6.93483488600846 1 0 
EZG_374494 N1 R0019254 0.000833927224117 100 2.88777981175331 1 0 
EZG_374307 N1 R0021435 0.00404740910358 100 6.36192510454186 1 0 
EZG_376366 N1 R0019466 0.000797414869247 100 2.82385351823886 1 0 
EZG_374397 N1 R0021442 0.00103217083056 100 3.21274155599233 1 0 
EZG_375789 N1 R0019721 0.000459875968425 100 2.14447188935878 1 0 
EZG_375690 N1 R0019723 0.00060369314104 100 2.45701677047594 1 0 
EZG_375524 N1 R0019831 0.0015604744311 100 3.95028407978464 1 0 
EZG_374243 N1 R0043594 0.00158701879984 100 3.9837404531922 1 0 
EZG_374244 N1 R0043594 0.00161612581437 100 4.02010673287414 1 0 
EZG_372188 N1 R0019825 0.00169984852094 100 4.12292192618293 1 0 
EZG_374316 N1 R0021433 0.0481281891809 100 21.9381378382259 1 0 
EZG_372337 N1 R0019939 0.0016715703365 100 4.0884842380765 1 0 
EZG_375578 N1 R0019716 0.00104135306854 100 3.22700026114037 1 0 
EZG_374250 N1 R0043594 0.00237947338735 100 4.8779846118556 1 0 
EZG_374440 N1 R0019252 0.0247293794596 100 15.7255777189902 1 0 
EZG_376017 N1 R0019831 0.000444267951632 100 2.10776647575579 1 0 
EZG_375521 N1 R0019831 0.00185556944951 100 4.30763212160695 1 0 
EZG_376059 N1 R0019825 0.0116308230575 100 10.7846293666032 1 0 
EZG_376938 N1 R0019717 0.000420024512985 100 2.04944995787894 1 0 
EZG_376034 N1 R0019825 0.00196952947924 100 4.43793812399407 1 0 
EZG_375545 N1 R0019716 0.00157160578614 100 3.96434835268043 1 0 
EZG_376607 N1 R0019718 0.00167892255516 100 4.09746574745903 1 0 
EZG_375547 N1 R0019716 0.00251020803299 100 5.01019763381646 1 0 
EZG_376038 N1 R0019831 0.000823927978765 100 2.87041456720976 1 0 
EZG_375502 N1 R0019717 0.00127035155105 100 3.56419914012952 1 0 
EZG_376611 N1 R0019203 0.00344479509227 100 5.86923767815719 1 0 
EZG_376612 N1 R0019723 0.00381536657338 100 6.17686536471372 1 0 
EZG_376042 N1 R0019825 0.00275635930104 100 5.25010409519659 1 0 
EZG_376614 N1 R0019203 0.00728996535797 100 8.53812939581616 1 0 
EZG_374294 N1 R0021458 0.00213003664687 100 4.6152320059451 1 0 
EZG_374253 N1 R0043594 0.00306206288039 100 5.53359095017874 1 0 
EZG_372305 N1 R0019825 0.00200467355969 100 4.47735810460812 1 0 
EZG_375557 N1 R0019717 0.000464460290496 100 2.15513408050636 1 0 
EZG_376048 N1 R0019825 0.00338621247582 100 5.8191171803118 1 0 
EZG_376330 N1 R0043702 0.000761732399801 100 2.75994999918658 1 0 
EZG_375560 N1 R0019717 0.00139660439614 100 3.73711706551989 1 0 
EZG_375561 N1 R0019717 0.000489075733138 100 2.21150567066422 1 0 
EZG_376821 N1 R0019939 0.00273834187556 100 5.2329168496738 1 0 
EZG_375563 N1 R0019717 0.0130535977444 100 11.4252342402246 1 0 
EZG_377100 N1 R0013935 0.00227300506885 100 4.76760429235691 1 0 
EZG_374122 N1 R0013935 0.00171026531598 100 4.13553541392164 1 0 
EZG_375686 N1 R0019723 0.0174375872727 100 13.2051456912448 1 0 
EZG_374501 N1 R0019723 0.00164371897237 100 4.05428041996357 1 0 
EZG_376045 N1 R0019825 0.000903374606837 100 3.00561908238053 1 0 
EZG_377110 N1 R0019825 0.000953556375653 100 3.08797081536241 1 0 
EZG_376590 N1 R0019719 0.0488851930802 100 22.109996173722 1 0 
EZG_374505 N1 R0019254 0.00150717909899 100 3.8822404600823 1 0 
EZG_376841 N1 R0043703 0.00289304253455 100 5.37870108348661 1 0 
EZG_373197 N1 R0019466 0.0015614944305 100 3.95157491451193 1 0 
EZG_376064 N1 R0013935 0.0006929330691 100 2.63236218841557 1 0 
EZG_374246 N1 R0043594 0.00187965456026 100 4.33549831075968 1 0 
EZG_374134 N1 R0019939 0.00395590104757 100 6.28959541430925 1 0 
EZG_376349 N1 R0019373 0.000512959103135 100 2.26486004674682 1 0 
EZG_374439 N1 R0019252 0.00357608378015 100 5.98003660536455 1 0 
EZG_374319 N1 R0021453 0.00928322446066 100 9.63494912319728 1 0 
EZG_374138 N1 R0019944 0.000190385594003 100 1.37980286274163 1 0 
EZG_374502 N1 R0019254 0.00079630853323 100 2.82189392647917 1 0 
EZG_372396 N1 R0021442 0.199108618293 100 44.6215887539877 1 0 
EZG_374254 N1 R0019718 0.00317133338262 100 5.63145929810382 1 0 
EZG_374324 N1 R0021453 0.00167886991648 100 4.09740151374014 1 0 
EZG_374325 N1 R0043594 0.00175571883756 100 4.19012987574371 1 0 
EZG_375631 N1 R0019723 0.000646669963389 100 2.54297063173958 1 0 
EZG_372407 N1 R0043703 0.0127142681919 100 11.2757563790195 1 0 
EZG_374540 N1 R0019252 0.001977227892 100 4.44660307650683 1 0 
EZG_376610 N1 R0019719 0.0033545716113 100 5.79186637561676 1 0 
EZG_374330 N1 R0021433 0.00230167697557 100 4.79757957262826 1 0 
EZG_374331 N1 R0021433 0.00315209496677 100 5.61435211468786 1 0 
EZG_374544 N1 R0019718 0.0348093072346 100 18.657252540125 1 0 
EZG_376324 N1 R0019716 0.000251534115011 100 1.58598270801103 1 0 
EZG_376883 N1 R0019373 0.00323210857873 100 5.68516365527854 1 0 
EZG_376884 N1 R0019466 0.00341251605488 100 5.8416744644665 1 0 
EZG_376327 N1 R0043703 0.000312525886441 100 1.76784016936204 1 0 
EZG_376328 N1 R0043703 0.000688831099677 100 2.62455920046967 1 0 
EZG_376329 N1 R0019468 0.000695615600832 100 2.63745256039232 1 0 
EZG_376008 N1 R0019831 0.000870596625734 100 2.95058744275441 1 0 
EZG_376331 N1 R0043702 0.000881971621158 100 2.96980070233341 1 0 
EZG_376332 N1 R0043702 0.000927692741954 100 3.04580488861976 1 0 
EZG_376333 N1 R0043702 0.000901970695328 100 3.00328269619761 1 0 
EZG_376334 N1 R0043702 0.000846108577562 100 2.90879455713531 1 0 
EZG_376053 N1 R0019825 0.00150692060041 100 3.88190752132247 1 0 
EZG_376833 N1 R0019717 0.00271823670676 100 5.21367116987637 1 0 
EZG_375685 N1 R0019724 0.000326872102502 100 1.80796046002671 1 0 
EZG_376896 N1 R0019838 0.00297115055699 100 5.45082613645858 1 0 
EZG_377104 N1 R0019717 0.00620992836231 100 7.88030986846964 1 0 
EZG_375568 N1 R0019717 0.0012709557526 100 3.5650466372826 1 0 
EZG_375570 N1 R0019717 0.0013643404954 100 3.69369800525165 1 0 
EZG_376060 N1 R0019825 0.00375678278925 100 6.12925997918998 1 0 
EZG_376901 N1 R0019838 0.00289898682112 100 5.38422401198167 1 0 
EZG_376902 N1 R0019838 0.00618329194476 100 7.86339109084624 1 0 
EZG_376903 N1 R0019838 0.0134118429693 100 11.5809511566624 1 0 
EZG_374132 N1 R0019939 0.00263900719214 100 5.13712681577942 1 0 
EZG_376865 N1 R0019838 0.00288485447455 100 5.37108413129975 1 0 
EZG_376308 N1 R0019717 0.000850717126685 100 2.91670555024843 1 0 
EZG_376309 N1 R0019717 0.0035458703729 100 5.95472112940648 1 0 
EZG_375538 N1 R0019716 0.000222795286143 100 1.49263286223706 1 0 
EZG_376351 N1 R0019373 0.00121451465885 100 3.48498875012531 1 0 
EZG_374015 N1 R0019466 0.215939505861 100 46.4692915656135 1 0 
EZG_374139 N1 R0019944 0.0050469576749 100 7.10419430681622 1 0 
EZG_374323 N1 R0043594 0.00160826382167 100 4.01031647338461 1 0 
EZG_376604 N1 R0019721 0.00125488592774 100 3.54243691226816 1 0 
EZG_376605 N1 R0019723 0.0012706132196 100 3.56456620025495 1 0 
EZG_376357 N1 R0019373 0.000484542426057 100 2.20123244128602 1 0 
EZG_374386 N1 R0021442 0.000798997025381 100 2.82665354329285 1 0 
EZG_376359 N1 R0019373 0.00253933656263 100 5.0391830316332 1 0 
EZG_376609 N1 R0019718 0.0025220421696 100 5.02199379688984 1 0 
EZG_375782 N1 R0019717 0.0135016996588 100 11.6196814322941 1 0 
EZG_376362 N1 R0019466 0.00429026861048 100 6.55001420645788 1 0 
EZG_376363 N1 R0019466 0.00176263606512 100 4.19837595400888 1 0 
EZG_376613 N1 R0019719 0.00406040036356 100 6.37212708878283 1 0 
EZG_374395 N1 R0021442 0.000755227349401 100 2.7481400062606 1 0 
EZG_375567 N1 R0019717 0.00111559174457 100 3.34004752147331 1 0 
EZG_375508 N1 R0043703 0.00127219941519 100 3.56679045528329 1 0 
EZG_376368 N1 R0019466 0.00129466978442 100 3.59815200404319 1 0 
EZG_374409 N1 R0019252 0.00058391130133 100 2.41642566889611 1 0 
EZG_376887 N1 R0019468 0.00248037343511 100 4.9803347629552 1 0 
EZG_376371 N1 R0019466 0.00213459990814 100 4.62017305751635 1 0 
EZG_376010 N1 R0019831 0.00152372704409 100 3.90349464466137 1 0 
EZG_374414 N1 R0019252 0.00179986707456 100 4.24248403009369 1 0 
EZG_377099 N1 R0013935 0.00200185088326 100 4.47420482684912 1 0 
EZG_376892 N1 R0019839 0.00236840451645 100 4.86662564458167 1 0 
EZG_376866 N1 R0019839 0.00673491803459 100 8.20665463790819 1 0 
EZG_375565 N1 R0019717 0.00134946948618 100 3.67351260536833 1 0 
EZG_374419 N1 R0019252 0.00158936730977 100 3.98668698265866 1 0 
EZG_375744 N1 R0019831 0.0037102534701 100 6.09118499973527 1 0 
EZG_374252 N1 R0019203 0.00304834428503 100 5.52118129120028 1 0 
EZG_376838 N1 R0019717 0.00315823513057 100 5.61981772886808 1 0 
EZG_374526 N1 R0019254 0.0332196302393 100 18.2262531089909 1 0 
EZG_376061 N1 R0019825 0.00164194367308 100 4.052090414934 1 0 
EZG_376022 N1 R0019825 0.00260333665524 100 5.10229032419756 1 0 
EZG_376023 N1 R0019825 0.00143500717803 100 3.7881488593111 1 0 
EZG_375534 N1 R0019716 0.00339395777101 100 5.8257684222856 1 0 
EZG_374133 N1 R0019939 0.00630014140232 100 7.93734300778289 1 0 
EZG_375740 N1 R0019825 0.00208473118863 100 4.56588566285885 1 0 
EZG_376321 N1 R0019717 0.000268543031054 100 1.63872826012735 1 0 
EZG_376867 N1 R0019838 0.00159848521975 100 3.99810607631914 1 0 
EZG_375539 N1 R0019716 0.000454180608541 100 2.13115135206536 1 0 
EZG_376882 N1 R0019466 0.00281823779396 100 5.30870774667433 1 0 
EZG_376378 N1 R0019466 0.000786874722661 100 2.80512873619198 1 0 
EZG_376032 N1 R0019831 0.00290627909364 100 5.3909916468494 1 0 
EZG_376885 N1 R0019468 0.00363009825317 100 6.02502967060744 1 0 
EZG_375629 N1 R0019346 0.00307144805785 100 5.54206464943346 1 0 
EZG_376606 N1 R0019723 0.00156951238651 100 3.9617071907323 1 0 
EZG_376888 N1 R0019466 0.00682304878034 100 8.26017480465153 1 0 
EZG_375632 N1 R0019723 0.000640534073819 100 2.53087746408039 1 0 
EZG_375633 N1 R0043594 0.0346656343551 100 18.6187095028361 1 0 
EZG_375634 N1 R0021453 0.00100002010296 100 3.16230944557929 1 0 
EZG_376319 N1 R0019717 0.00830717613612 100 9.1143711445826 1 0 
EZG_376322 N1 R0019717 0.000270346592195 100 1.64422198074044 1 0 
EZG_376323 N1 R0019717 0.000291047064048 100 1.70601015251375 1 0 