[TITLE]
;;Project Title/Notes
Gievenbeck_e2_T100D90

[OPTIONS]
;;Option             Value
FLOW_UNITS           CMS
INFILTRATION         HORTON
FLOW_ROUTING         DYNWAVE
LINK_OFFSETS         ELEVATION
MIN_SLOPE            0
ALLOW_PONDING        NO
SKIP_STEADY_STATE    NO

IGNORE_RDII          YES
IGNORE_SNOWMELT      YES
IGNORE_GROUNDWATER   YES
IGNORE_QUALITY       YES
START_DATE           01/01/2024
START_TIME           00:00:00
REPORT_START_DATE    01/01/2024
REPORT_START_TIME    00:00:00
END_DATE             01/01/2024
END_TIME             04:30:00
SWEEP_START          01/01
SWEEP_END            12/31
DRY_DAYS             0
REPORT_STEP          00:01:00
WET_STEP             00:01:00
DRY_STEP             00:01:00
ROUTING_STEP         0:00:01 
RULE_STEP            00:00:00

INERTIAL_DAMPING     PARTIAL
NORMAL_FLOW_LIMITED  BOTH
FORCE_MAIN_EQUATION  D-W
SURCHARGE_METHOD     SLOT
VARIABLE_STEP        0.75
LENGTHENING_STEP     1
MIN_SURFAREA         1.167
MAX_TRIALS           8
HEAD_TOLERANCE       0.0015
SYS_FLOW_TOL         5
LAT_FLOW_TOL         5
MINIMUM_STEP         0.5
THREADS              16

[EVAPORATION]
;;Data Source    Parameters
;;-------------- ----------------
CONSTANT         1.5
DRY_ONLY         YES

[RAINGAGES]
;;Name           Format    Interval SCF      Source    
;;-------------- --------- ------ ------ ----------
Kostra           VOLUME    0:05     1        TIMESERIES Kostra          

[SUBCATCHMENTS]
;;Name           Rain Gage        Outlet           Area     %Imperv  Width    %Slope   CurbLen  SnowPack        
;;-------------- ---------------- ---------------- -------- -------- -------- -------- -------- ----------------
EZG_371814       Kostra           R0019247         0.001614477 100      4.018056 1        0                        
EZG_372414       Kostra           R0019839         0.04824049 100      21.96372 1        0                        
EZG_377174       Kostra           R0019719         0.003207924 100      5.663853 1        0                        
EZG_377175       Kostra           R0019346         0.01912564 100      13.82955 1        0                        
EZG_372123       Kostra           R0019466         0.1542452 100      39.27407 1        0                        
EZG_374545       Kostra           R0019247         0.09249543 100      30.41306 1        0                        
EZG_376311       Kostra           R0019717         0.0003063151 100      1.750186 1        0                        
EZG_372345       Kostra           R0019831         0.3033537 100      55.07756 1        0                        
EZG_374016       Kostra           R0019839         0.05674242 100      23.82067 1        0                        
EZG_377168       Kostra           R0021453         0.017745 100      13.32104 1        0                        
EZG_377169       Kostra           R0043594         0.1023679 100      31.99498 1        0                        
EZG_377170       Kostra           R0019203         0.005721718 100      7.564204 1        0                        
EZG_377171       Kostra           R0019203         0.0590971 100      24.30989 1        0                        
EZG_377172       Kostra           R0019718         0.01882522 100      13.7205  1        0                        
EZG_377173       Kostra           R0019719         0.0243563 100      15.60651 1        0                        
EZG_375500       Kostra           R0019717         0.006450845 100      8.031715 1        0                        
EZG_374010       Kostra           R0019202         0.02309539 100      15.19717 1        0                        
EZG_374347       Kostra           R0019839         0.004591125 100      6.775784 1        0                        
EZG_374348       Kostra           R0019838         0.008243967 100      9.079629 1        0                        
EZG_374361       Kostra           R0019839         0.0004047403 100      2.011816 1        0                        
EZG_376910       Kostra           R0019839         0.00267934 100      5.176234 1        0                        
EZG_374363       Kostra           R0019839         0.000792661 100      2.815424 1        0                        
EZG_376872       Kostra           R0019838         0.001124726 100      3.353693 1        0                        
EZG_374365       Kostra           R0019839         0.006072281 100      7.792484 1        0                        
EZG_376905       Kostra           R0019838         0.003767852 100      6.138283 1        0                        
EZG_374579       Kostra           R0021435         0.007861427 100      8.866469 1        0                        
EZG_374022       Kostra           R0019373         0.04098988 100      20.24596 1        0                        
EZG_377176       Kostra           R0019721         0.0188702 100      13.73689 1        0                        
EZG_377177       Kostra           R0019723         0.07526486 100      27.43444 1        0                        
EZG_376911       Kostra           R0019839         0.003833943 100      6.191885 1        0                        
EZG_376906       Kostra           R0019838         0.003837434 100      6.194703 1        0                        
EZG_377114       Kostra           R0019466         0.004901489 75       7.001064 1        0                        
EZG_376013       Kostra           R0019831         0.006627619 100      8.141019 1        0                        
EZG_373155       Kostra           R0021458         0.1122486 100      33.50352 1        0                        
EZG_372951       Kostra           R0019717         0.01100065 100      10.4884  1        0                        
EZG_376036       Kostra           R0019831         0.00118771 100      3.446317 1        0                        
EZG_374570       Kostra           R0019718         0.001336631 100      3.655997 1        0                        
EZG_373154       Kostra           R0021442         0.08407831 100      28.99626 1        0                        
EZG_373066       Kostra           R0019831         0.0126527 100      11.24842 1        0                        
EZG_376376       Kostra           R0019468         0.002270847 100      4.765341 1        0                        
EZG_374561       Kostra           R0019718         0.03128057 100      17.68631 1        0                        
EZG_372961       Kostra           R0043703         0.001164437 100      3.412384 1        0                        
EZG_373033       Kostra           R0019831         0.001625308 100      4.031511 1        0                        
EZG_374425       Kostra           R0019252         0.0054757 100      7.399797 1        0                        
EZG_374509       Kostra           R0019723         0.001765777 100      4.202115 1        0                        
EZG_373080       Kostra           R0019717         0.001793425 100      4.234885 1        0                        
EZG_372269       Kostra           R0019717         0.001246517 100      3.530605 1        0                        
EZG_376051       Kostra           R0019825         0.0009212993 100      3.035291 1        0                        
EZG_374513       Kostra           R0019254         0.001687626 100      4.108072 1        0                        
EZG_376335       Kostra           R0043702         0.008214003 100      9.063114 1        0                        
EZG_372925       Kostra           R0043702         0.1062888 100      32.60196 1        0                        
EZG_375518       Kostra           R0043703         0.000839561 100      2.897518 1        0                        
EZG_372924       Kostra           R0019838         0.1694521 100      41.16456 1        0                        
EZG_372948       Kostra           R0019717         0.0007676041 100      2.770567 1        0                        
EZG_374529       Kostra           R0019254         0.0012211 100      3.494425 1        0                        
EZG_374429       Kostra           R0019252         0.005790125 100      7.609287 1        0                        
EZG_372954       Kostra           R0019716         0.0006721408 100      2.592568 1        0                        
EZG_373159       Kostra           R0043702         0.001369682 100      3.700921 1        0                        
EZG_373134       Kostra           R0013935         0.002789533 100      5.281603 1        0                        
EZG_372933       Kostra           R0043594         0.004674349 100      6.836921 1        0                        
EZG_375741       Kostra           R0019825         0.001258142 100      3.547029 1        0                        
EZG_372955       Kostra           R0019716         0.0006417709 100      2.53332  1        0                        
EZG_376997       Kostra           R0013935         0.00122266 100      3.496655 1        0                        
EZG_373079       Kostra           R0019717         0.001796937 100      4.23903  1        0                        
EZG_373119       Kostra           R0019825         0.01236582 100      11.12017 1        0                        
EZG_374480       Kostra           R0021442         0.005388495 100      7.340637 1        0                        
EZG_374563       Kostra           R0019718         0.001898055 100      4.356668 1        0                        
EZG_372952       Kostra           R0019717         0.0002459564 100      1.5683   1        0                        
EZG_372999       Kostra           R0019825         0.00370938 100      6.090468 1        0                        
EZG_373147       Kostra           R0019466         0.003296621 100      5.74162  1        0                        
EZG_376360       Kostra           R0019373         0.001834809 100      4.283468 1        0                        
EZG_376039       Kostra           R0019825         0.003575652 100      5.979676 1        0                        
EZG_372959       Kostra           R0043703         0.01374801 100      11.72519 1        0                        
EZG_373031       Kostra           R0019831         0.0005386124 100      2.320802 1        0                        
EZG_375504       Kostra           R0019717         0.02669858 100      16.3397  1        0                        
EZG_376377       Kostra           R0019466         0.001858207 100      4.310693 1        0                        
EZG_373166       Kostra           R0019939         0.001403199 100      3.74593  1        0                        
EZG_375520       Kostra           R0019831         0.001331476 100      3.648939 1        0                        
EZG_373120       Kostra           R0019825         0.001786911 100      4.227188 1        0                        
EZG_372995       Kostra           R0019716         0.08833518 100      29.72123 1        0                        
EZG_373158       Kostra           R0043594         0.1378167 100      37.12367 1        0                        
EZG_374486       Kostra           R0021442         0.005274419 100      7.26252  1        0                        
EZG_376050       Kostra           R0019825         0.003228707 100      5.682171 1        0                        
EZG_372931       Kostra           R0019202         0.001883331 100      4.339736 1        0                        
EZG_373162       Kostra           R0019825         0.005199274 100      7.210599 1        0                        
EZG_373063       Kostra           R0019831         0.00171888 100      4.145938 1        0                        
EZG_376012       Kostra           R0019831         0.001212961 100      3.482758 1        0                        
EZG_373164       Kostra           R0019831         0.0008633339 100      2.938254 1        0                        
EZG_374515       Kostra           R0019723         0.009370134 100      9.679945 1        0                        
EZG_373139       Kostra           R0019466         0.003648868 100      6.040586 1        0                        
EZG_374481       Kostra           R0021442         0.0009752189 100      3.12285  1        0                        
EZG_372950       Kostra           R0019717         0.0007571463 100      2.751629 1        0                        
EZG_373157       Kostra           R0021433         0.05672193 100      23.81637 1        0                        
EZG_373170       Kostra           R0019939         0.001583425 100      3.979228 1        0                        
EZG_374428       Kostra           R0019252         0.02730535 100      16.52433 1        0                        
EZG_374564       Kostra           R0019718         0.01683499 100      12.97497 1        0                        
EZG_373132       Kostra           R0013935         0.00279674 100      5.288421 1        0                        
EZG_374431       Kostra           R0019252         0.02099208 100      14.48864 1        0                        
EZG_374512       Kostra           R0019254         0.004497596 100      6.706412 1        0                        
EZG_374436       Kostra           R0019252         0.002372843 100      4.871183 1        0                        
EZG_373137       Kostra           R0019466         0.00148805 100      3.857524 1        0                        
EZG_373151       Kostra           R0019466         0.003053034 100      5.525426 1        0                        
EZG_373152       Kostra           R0013935         0.003206733 100      5.662802 1        0                        
EZG_373167       Kostra           R0019939         0.001585336 100      3.981628 1        0                        
EZG_373156       Kostra           R0021433         0.05842001 100      24.17023 1        0                        
EZG_373169       Kostra           R0019939         0.002372092 100      4.870412 1        0                        
EZG_373143       Kostra           R0019466         0.001737239 100      4.16802  1        0                        
EZG_376356       Kostra           R0019373         0.001469731 100      3.833707 1        0                        
EZG_373145       Kostra           R0019466         0.002154076 100      4.641202 1        0                        
EZG_376317       Kostra           R0019717         0.0008328138 100      2.885851 1        0                        
EZG_373001       Kostra           R0019825         0.003518662 100      5.931831 1        0                        
EZG_376984       Kostra           R0019468         0.00190922 100      4.369462 1        0                        
EZG_376040       Kostra           R0019825         0.005278406 100      7.265264 1        0                        
EZG_376307       Kostra           R0019825         0.003481922 100      5.900781 1        0                        
EZG_374514       Kostra           R0019254         0.005083241 100      7.129685 1        0                        
EZG_374437       Kostra           R0019252         0.00394056 100      6.277388 1        0                        
EZG_372944       Kostra           R0019717         0.00209732 100      4.579651 1        0                        
EZG_376325       Kostra           R0019716         0.0006881369 100      2.623236 1        0                        
EZG_375747       Kostra           R0019831         0.001338294 100      3.65827  1        0                        
EZG_374483       Kostra           R0021442         0.004290938 100      6.550525 1        0                        
EZG_374484       Kostra           R0021442         0.02304797 100      15.18156 1        0                        
EZG_374485       Kostra           R0021442         0.003227443 100      5.681059 1        0                        
EZG_372929       Kostra           R0019838         0.008413467 100      9.172495 1        0                        
EZG_372930       Kostra           R0043594         0.2626728 100      51.25162 1        0                        
EZG_374118       Kostra           R0013935         0.0007029474 100      2.651316 1        0                        
EZG_376052       Kostra           R0019825         0.0007437323 100      2.727146 1        0                        
EZG_372932       Kostra           R0021453         0.006517063 100      8.072833 1        0                        
EZG_374432       Kostra           R0019252         0.0005066082 100      2.250796 1        0                        
EZG_374569       Kostra           R0019718         0.008237099 100      9.075847 1        0                        
EZG_372421       Kostra           R0019831         0.001720743 100      4.148184 1        0                        
EZG_373078       Kostra           R0019717         0.001798431 100      4.240791 1        0                        
EZG_374482       Kostra           R0021442         0.002510417 100      5.010406 1        0                        
EZG_376354       Kostra           R0019373         0.0005903922 100      2.429799 1        0                        
EZG_374562       Kostra           R0019718         0.001618114 100      4.022579 1        0                        
EZG_373192       Kostra           R0021435         0.0002929178 100      1.711484 1        0                        
EZG_376021       Kostra           R0019831         0.005255234 100      7.2493   1        0                        
EZG_374510       Kostra           R0019723         0.001769103 100      4.20607  1        0                        
EZG_374511       Kostra           R0019254         0.00324534 100      5.696788 1        0                        
EZG_374567       Kostra           R0019719         0.0144378 100      12.01574 1        0                        
EZG_374430       Kostra           R0019254         0.001223307 100      3.497581 1        0                        
EZG_376316       Kostra           R0019717         0.0008745775 100      2.957326 1        0                        
EZG_375755       Kostra           R0019717         0.0007051684 100      2.655501 1        0                        
EZG_373142       Kostra           R0019466         0.0015856 100      3.981959 1        0                        
EZG_372927       Kostra           R0019373         0.008508699 100      9.224261 1        0                        
EZG_373141       Kostra           R0019466         0.002249034 100      4.742398 1        0                        
EZG_372928       Kostra           R0019466         0.1372672 100      37.04959 1        0                        
EZG_376037       Kostra           R0019825         0.001067357 100      3.267043 1        0                        
EZG_373148       Kostra           R0019466         0.001472086 100      3.836777 1        0                        
EZG_374566       Kostra           R0019719         0.01180091 100      10.8632  1        0                        
EZG_372926       Kostra           R0019839         0.1068783 100      32.69225 1        0                        
EZG_372964       Kostra           R0019944         0.0004657166 100      2.158047 1        0                        
EZG_373059       Kostra           R0019831         0.007146439 100      8.453661 1        0                        
EZG_376326       Kostra           R0019716         0.004476341 50       6.690547 1        0                        
EZG_374142       Kostra           R0019944         0.0003521548 50       1.876579 1        0                        
EZG_376049       Kostra           R0019825         0.0004857866 50       2.204057 1        0                        
EZG_374141       Kostra           R0019944         0.003685321 50       6.070684 1        0                        
EZG_377102       Kostra           R0043703         0.004449213 50       6.670242 1        0                        
EZG_376999       Kostra           R0019825         0.000710745 50       2.66598  1        0                        
EZG_377101       Kostra           R0019716         0.001282297 50       3.580917 1        0                        
EZG_374417       Kostra           R0019252         0.0008608812 100      2.934078 1        0                        
EZG_374230       Kostra           R0021458         0.0412923 100      20.32051 1        0                        
EZG_374392       Kostra           R0019247         0.001409395 100      3.75419  1        0                        
EZG_374416       Kostra           R0019254         0.0007982925 100      2.825407 1        0                        
EZG_372268       Kostra           R0019717         0.007217091 100      8.495346 1        0                        
EZG_372322       Kostra           R0019466         0.001944471 100      4.409615 1        0                        
EZG_374556       Kostra           R0019718         0.002730221 100      5.225152 1        0                        
EZG_374234       Kostra           R0019718         0.001117666 100      3.343151 1        0                        
EZG_374342       Kostra           R0019838         0.0006803665 100      2.608384 1        0                        
EZG_374298       Kostra           R0021458         0.002028992 100      4.504433 1        0                        
EZG_375683       Kostra           R0019724         0.0003978524 100      1.994624 1        0                        
EZG_374290       Kostra           R0021458         0.002091166 100      4.572926 1        0                        
EZG_374258       Kostra           R0019203         0.004253999 100      6.522269 1        0                        
EZG_374302       Kostra           R0021442         0.003267835 100      5.716498 1        0                        
EZG_374260       Kostra           R0019346         0.008106203 100      9.003445 1        0                        
EZG_374227       Kostra           R0019717         0.005462008 100      7.39054  1        0                        
EZG_372270       Kostra           R0019717         0.003737981 100      6.113903 1        0                        
EZG_374310       Kostra           R0021458         0.001635147 100      4.043695 1        0                        
EZG_374333       Kostra           R0043594         0.002784405 100      5.276746 1        0                        
EZG_374447       Kostra           R0019252         0.0008320884 100      2.884594 1        0                        
EZG_374552       Kostra           R0019719         0.003921904 100      6.262511 1        0                        
EZG_374412       Kostra           R0019252         0.0008465149 100      2.909493 1        0                        
EZG_374129       Kostra           R0013935         0.003608189 100      6.00682  1        0                        
EZG_374554       Kostra           R0019718         0.0003733656 100      1.932267 1        0                        
EZG_374555       Kostra           R0019718         0.001724136 100      4.152272 1        0                        
EZG_374418       Kostra           R0019252         0.0008411279 100      2.900221 1        0                        
EZG_374259       Kostra           R0019718         0.09159262 100      30.26427 1        0                        
EZG_374124       Kostra           R0013935         0.002098118 100      4.580522 1        0                        
EZG_374396       Kostra           R0021442         0.0006759801 100      2.599962 1        0                        
EZG_375522       Kostra           R0019831         0.0003037906 100      1.742959 1        0                        
EZG_374398       Kostra           R0021442         0.0008627847 100      2.93732  1        0                        
EZG_374549       Kostra           R0019718         0.003013323 100      5.489374 1        0                        
EZG_374299       Kostra           R0021458         0.001674526 100      4.092097 1        0                        
EZG_374143       Kostra           R0019944         0.00261368 100      5.112416 1        0                        
EZG_375694       Kostra           R0019723         0.0006217139 100      2.493419 1        0                        
EZG_372333       Kostra           R0019831         0.005136706 100      7.167082 1        0                        
EZG_374387       Kostra           R0021442         0.0008994368 100      2.999061 1        0                        
EZG_374388       Kostra           R0021442         0.004157791 100      6.448094 1        0                        
EZG_375516       Kostra           R0043703         0.02972285 100      17.24032 1        0                        
EZG_374225       Kostra           R0019717         0.001833393 100      4.281814 1        0                        
EZG_375551       Kostra           R0019717         0.0006952782 100      2.636813 1        0                        
EZG_372326       Kostra           R0019468         0.003670914 100      6.058807 1        0                        
EZG_372133       Kostra           R0019716         0.007679159 100      8.763081 1        0                        
EZG_374126       Kostra           R0013935         0.0003002895 100      1.732886 1        0                        
EZG_376381       Kostra           R0019944         0.0005615442 100      2.369692 1        0                        
EZG_374338       Kostra           R0021433         0.0007136791 100      2.671477 1        0                        
EZG_374229       Kostra           R0019202         0.05195432 100      22.79349 1        0                        
EZG_374256       Kostra           R0021458         0.00348755 100      5.905548 1        0                        
EZG_375546       Kostra           R0019716         0.001883286 100      4.339684 1        0                        
EZG_372147       Kostra           R0019717         0.01118856 100      10.5776  1        0                        
EZG_374301       Kostra           R0021442         0.004157802 100      6.448102 1        0                        
EZG_374147       Kostra           R0019944         0.0002455212 100      1.566912 1        0                        
EZG_374149       Kostra           R0019944         0.01676317 100      12.94726 1        0                        
EZG_374304       Kostra           R0021458         0.03146714 100      17.73898 1        0                        
EZG_375785       Kostra           R0019717         0.004238756 100      6.510573 1        0                        
EZG_376043       Kostra           R0019825         0.00539885 100      7.347687 1        0                        
EZG_372304       Kostra           R0019825         0.01324322 100      11.50792 1        0                        
EZG_374226       Kostra           R0019717         0.008949787 100      9.460332 1        0                        
EZG_374128       Kostra           R0013935         0.002782646 100      5.275079 1        0                        
EZG_374130       Kostra           R0013935         0.002135303 100      4.620934 1        0                        
EZG_375558       Kostra           R0019717         0.0005504291 100      2.346123 1        0                        
EZG_375559       Kostra           R0019717         0.0006459486 100      2.541552 1        0                        
EZG_372186       Kostra           R0019716         0.02624815 100      16.20128 1        0                        
EZG_375574       Kostra           R0019717         0.0016784 100      4.096828 1        0                        
EZG_375562       Kostra           R0019717         0.0007999208 100      2.828287 1        0                        
EZG_375517       Kostra           R0043703         0.001141402 100      3.378464 1        0                        
EZG_374318       Kostra           R0021453         0.001740762 100      4.172244 1        0                        
EZG_376015       Kostra           R0019831         0.0009338621 100      3.055916 1        0                        
EZG_374559       Kostra           R0019719         0.003097756 100      5.565749 1        0                        
EZG_374240       Kostra           R0043594         0.001471296 100      3.835748 1        0                        
EZG_374422       Kostra           R0019252         0.0007540592 100      2.746014 1        0                        
EZG_375509       Kostra           R0043703         0.001306128 100      3.614039 1        0                        
EZG_374297       Kostra           R0021458         0.001620304 100      4.0253   1        0                        
EZG_375691       Kostra           R0019723         0.002710815 100      5.206548 1        0                        
EZG_373194       Kostra           R0019254         0.02675334 100      16.35645 1        0                        
EZG_372405       Kostra           R0043702         0.02710425 100      16.46337 1        0                        
EZG_374448       Kostra           R0019254         0.00145966 100      3.82055  1        0                        
EZG_375548       Kostra           R0019716         0.002795714 100      5.287451 1        0                        
EZG_374303       Kostra           R0021442         0.002703165 100      5.199197 1        0                        
EZG_374291       Kostra           R0021458         0.00219519 100      4.685286 1        0                        
EZG_374027       Kostra           R0021453         0.004967284 100      7.047896 1        0                        
EZG_375552       Kostra           R0019717         0.0005170694 100      2.273916 1        0                        
EZG_375639       Kostra           R0043594         0.01633262 100      12.77992 1        0                        
EZG_375787       Kostra           R0019717         0.001103135 100      3.321348 1        0                        
EZG_374503       Kostra           R0019254         0.0008200651 100      2.863678 1        0                        